<?xml version="1.0" encoding="UTF-8"?>

<!-- generated on 12/16/20 10:17:12 by Eclipse SUMO netedit Version 1.5.0
<configuration xmlns:xsi="http://www.w3.org/2001/XMLSchema-instance" xsi:noNamespaceSchemaLocation="http://sumo.dlr.de/xsd/netconvertConfiguration.xsd">

    <input>
        <sumo-net-file value="C:\Users\nxf63660\Documents\Simulator\ressources\ERMTG37(19)000130_SUMO_traces_for_TR103667___TR103766_simulations\SUMO_traces\common_files\2km_highway_50kmph_D-D.net.xml"/>
    </input>

    <output>
        <output-file value="C:\Users\nxf63660\Documents\Simulator\ressources\ERMTG37(19)000130_SUMO_traces_for_TR103667___TR103766_simulations\SUMO_traces\common_files\2km_highway_50kmph_D-D.net.xml"/>
        <output.street-names value="true"/>
    </output>

    <processing>
        <geometry.min-radius.fix.railways value="false"/>
        <geometry.max-grade.fix value="false"/>
        <offset.disable-normalization value="true"/>
        <lefthand value="false"/>
    </processing>

    <junctions>
        <no-turnarounds value="true"/>
        <junctions.corner-detail value="5"/>
        <junctions.limit-turn-speed value="5.5"/>
        <rectangular-lane-cut value="false"/>
    </junctions>

    <pedestrian>
        <walkingareas value="false"/>
    </pedestrian>

    <report>
        <aggregate-warnings value="5"/>
    </report>

</configuration>
-->

<net version="1.3" junctionCornerDetail="5" limitTurnSpeed="5.50" xmlns:xsi="http://www.w3.org/2001/XMLSchema-instance" xsi:noNamespaceSchemaLocation="http://sumo.dlr.de/xsd/net_file.xsd">

    <location netOffset="0.00,0.00" convBoundary="-2300.00,-4.09,200.00,4.80" origBoundary="-10000000000.00,-10000000000.00,10000000000.00,10000000000.00" projParameter="!"/>

    <edge id=":gneJ54_0" function="internal">
        <lane id=":gneJ54_0_0" index="0" speed="13.89" length="0.32" shape="-2280.17,8.00 -2280.50,8.00"/>
        <lane id=":gneJ54_0_1" index="1" speed="13.89" length="0.32" shape="-2280.18,4.80 -2280.50,4.80"/>
        <lane id=":gneJ54_0_2" index="2" speed="13.89" length="0.32" shape="-2280.19,1.60 -2280.50,1.60"/>
    </edge>
    <edge id=":gneJ54_3" function="internal">
        <lane id=":gneJ54_3_0" index="0" speed="13.89" length="0.28" shape="-2280.50,-8.00 -2280.23,-8.00"/>
        <lane id=":gneJ54_3_1" index="1" speed="13.89" length="0.28" shape="-2280.50,-4.80 -2280.22,-4.80"/>
        <lane id=":gneJ54_3_2" index="2" speed="13.89" length="0.28" shape="-2280.50,-1.60 -2280.21,-1.60"/>
    </edge>
    <edge id=":gneJ55_0" function="internal">
        <lane id=":gneJ55_0_0" index="0" speed="13.89" length="0.36" shape="-1059.64,3.67 -1059.88,3.91"/>
        <lane id=":gneJ55_0_1" index="1" speed="13.89" length="0.36" shape="-1059.63,0.47 -1059.89,0.71"/>
        <lane id=":gneJ55_0_2" index="2" speed="13.89" length="0.36" shape="-1059.62,-2.73 -1059.90,-2.49"/>
    </edge>
    <edge id=":gneJ55_3" function="internal">
        <lane id=":gneJ55_3_0" index="0" speed="13.89" length="0.33" shape="-1059.94,-12.09 -1059.59,-12.09"/>
        <lane id=":gneJ55_3_1" index="1" speed="13.89" length="0.33" shape="-1059.92,-8.89 -1059.60,-8.89"/>
        <lane id=":gneJ55_3_2" index="2" speed="13.89" length="0.33" shape="-1059.91,-5.69 -1059.61,-5.69"/>
    </edge>
    <edge id=":gneJ57_0" function="internal">
        <lane id=":gneJ57_0_0" index="0" speed="13.89" length="0.30" shape="184.53,7.95 184.23,7.95"/>
        <lane id=":gneJ57_0_1" index="1" speed="13.89" length="0.30" shape="184.54,4.75 184.24,4.75"/>
        <lane id=":gneJ57_0_2" index="2" speed="13.89" length="0.30" shape="184.55,1.55 184.25,1.55"/>
    </edge>
    <edge id=":gneJ58_0" function="internal">
        <lane id=":gneJ58_0_0" index="0" speed="13.89" length="0.10" shape="-1035.05,-12.01 -1035.05,-12.01"/>
        <lane id=":gneJ58_0_1" index="1" speed="13.89" length="0.10" shape="-1035.06,-8.81 -1035.06,-8.81"/>
        <lane id=":gneJ58_0_2" index="2" speed="13.89" length="0.10" shape="-1035.07,-5.61 -1035.07,-5.61"/>
    </edge>
    <edge id=":gneJ62_0" function="internal">
        <lane id=":gneJ62_0_0" index="0" speed="13.89" length="0.10" shape="-1035.14,3.75 -1035.14,3.75"/>
        <lane id=":gneJ62_0_1" index="1" speed="13.89" length="0.10" shape="-1035.13,0.55 -1035.13,0.55"/>
        <lane id=":gneJ62_0_2" index="2" speed="13.89" length="0.10" shape="-1035.12,-2.65 -1035.12,-2.65"/>
    </edge>

    <edge id="-gneE30" from="gneJ51" to="gneJ57" priority="-1" spreadType="center" shape="200.00,4.80 184.39,4.75">
        <lane id="-gneE30_0" index="0" speed="13.89" length="15.46" shape="199.99,8.00 184.53,7.95"/>
        <lane id="-gneE30_1" index="1" speed="13.89" length="15.46" shape="200.00,4.80 184.54,4.75"/>
        <lane id="-gneE30_2" index="2" speed="13.89" length="15.46" shape="200.01,1.60 184.55,1.55"/>
    </edge>
    <edge id="-gneE30.14" from="gneJ55" to="gneJ54" priority="-1">
        <lane id="-gneE30.14_0" index="0" speed="13.89" length="1220.30" shape="-1059.88,3.91 -2280.17,8.00"/>
        <lane id="-gneE30.14_1" index="1" speed="13.89" length="1220.30" shape="-1059.89,0.71 -2280.18,4.80"/>
        <lane id="-gneE30.14_2" index="2" speed="13.89" length="1220.30" shape="-1059.90,-2.49 -2280.19,1.60"/>
    </edge>
    <edge id="-gneE30.15" from="gneJ57" to="gneJ62" priority="-1" spreadType="center">
        <lane id="-gneE30.15_0" index="0" speed="13.89" length="1219.38" shape="184.23,7.95 -1035.14,3.75"/>
        <lane id="-gneE30.15_1" index="1" speed="13.89" length="1219.38" shape="184.24,4.75 -1035.13,0.55"/>
        <lane id="-gneE30.15_2" index="2" speed="13.89" length="1219.38" shape="184.25,1.55 -1035.12,-2.65"/>
    </edge>
    <edge id="-gneE30.15.1219" from="gneJ62" to="gneJ55" priority="-1" spreadType="center" shape="-1035.13,0.55 -1061.29,0.46">
        <lane id="-gneE30.15.1219_0" index="0" speed="13.89" length="24.50" shape="-1035.14,3.75 -1059.64,3.67"/>
        <lane id="-gneE30.15.1219_1" index="1" speed="13.89" length="24.50" shape="-1035.13,0.55 -1059.63,0.47"/>
        <lane id="-gneE30.15.1219_2" index="2" speed="13.89" length="24.50" shape="-1035.12,-2.65 -1059.62,-2.73"/>
    </edge>
    <edge id="-gneE30.885" from="gneJ54" to="gneJ50" priority="-1">
        <lane id="-gneE30.885_0" index="0" speed="13.89" length="19.50" shape="-2280.50,8.00 -2300.00,8.00"/>
        <lane id="-gneE30.885_1" index="1" speed="13.89" length="19.50" shape="-2280.50,4.80 -2300.00,4.80"/>
        <lane id="-gneE30.885_2" index="2" speed="13.89" length="19.50" shape="-2280.50,1.60 -2300.00,1.60"/>
    </edge>
    <edge id="entry" from="gneJ50" to="gneJ54" name="entry" priority="-1">
        <lane id="entry_0" index="0" speed="13.89" length="19.50" shape="-2300.00,-8.00 -2280.50,-8.00"/>
        <lane id="entry_1" index="1" speed="13.89" length="19.50" shape="-2300.00,-4.80 -2280.50,-4.80"/>
        <lane id="entry_2" index="2" speed="13.89" length="19.50" shape="-2300.00,-1.60 -2280.50,-1.60"/>
    </edge>
    <edge id="exit" from="gneJ55" to="gneJ58" name="exit" priority="-1">
        <lane id="exit_0" index="0" speed="13.89" length="24.53" shape="-1059.59,-12.09 -1035.05,-12.01"/>
        <lane id="exit_1" index="1" speed="13.89" length="24.53" shape="-1059.60,-8.89 -1035.06,-8.81"/>
        <lane id="exit_2" index="2" speed="13.89" length="24.53" shape="-1059.61,-5.69 -1035.07,-5.61"/>
    </edge>
    <edge id="exit.24" from="gneJ58" to="gneJ51" name="exit" priority="-1">
        <lane id="exit.24_0" index="0" speed="13.89" length="1235.09" shape="-1035.05,-12.01 200.03,-8.00"/>
        <lane id="exit.24_1" index="1" speed="13.89" length="1235.09" shape="-1035.06,-8.81 200.02,-4.80"/>
        <lane id="exit.24_2" index="2" speed="13.89" length="1235.09" shape="-1035.07,-5.61 200.01,-1.60"/>
    </edge>
    <edge id="gneE30.14" from="gneJ54" to="gneJ55" priority="-1">
        <lane id="gneE30.14_0" index="0" speed="13.89" length="1220.30" shape="-2280.23,-8.00 -1059.94,-12.09"/>
        <lane id="gneE30.14_1" index="1" speed="13.89" length="1220.30" shape="-2280.22,-4.80 -1059.92,-8.89"/>
        <lane id="gneE30.14_2" index="2" speed="13.89" length="1220.30" shape="-2280.21,-1.60 -1059.91,-5.69"/>
    </edge>

    <junction id="gneJ50" type="dead_end" x="-2300.00" y="0.00" incLanes="-gneE30.885_0 -gneE30.885_1 -gneE30.885_2" intLanes="" shape="-2300.00,0.00 -2300.00,9.60 -2300.00,0.00"/>
    <junction id="gneJ51" type="dead_end" x="200.00" y="0.00" incLanes="exit.24_0 exit.24_1 exit.24_2" intLanes="" shape="200.00,-0.00 200.03,-9.60 200.00,-0.00"/>
    <junction id="gneJ54" type="priority" x="-2280.35" y="0.00" incLanes="-gneE30.14_0 -gneE30.14_1 -gneE30.14_2 entry_0 entry_1 entry_2" intLanes=":gneJ54_0_0 :gneJ54_0_1 :gneJ54_0_2 :gneJ54_3_0 :gneJ54_3_1 :gneJ54_3_2" shape="-2280.17,9.60 -2280.23,-9.60 -2280.50,-9.60 -2280.50,9.60">
        <request index="0" response="000000" foes="000000" cont="0"/>
        <request index="1" response="000000" foes="000000" cont="0"/>
        <request index="2" response="000000" foes="000000" cont="0"/>
        <request index="3" response="000000" foes="000000" cont="0"/>
        <request index="4" response="000000" foes="000000" cont="0"/>
        <request index="5" response="000000" foes="000000" cont="0"/>
    </junction>
    <junction id="gneJ55" type="priority" x="-1059.76" y="-4.09" incLanes="-gneE30.15.1219_0 -gneE30.15.1219_1 -gneE30.15.1219_2 gneE30.14_0 gneE30.14_1 gneE30.14_2" intLanes=":gneJ55_0_0 :gneJ55_0_1 :gneJ55_0_2 :gneJ55_3_0 :gneJ55_3_1 :gneJ55_3_2" shape="-1059.64,5.27 -1059.58,-13.69 -1059.94,-13.69 -1059.88,5.51">
        <request index="0" response="000000" foes="000000" cont="0"/>
        <request index="1" response="000000" foes="000000" cont="0"/>
        <request index="2" response="000000" foes="000000" cont="0"/>
        <request index="3" response="000000" foes="000000" cont="0"/>
        <request index="4" response="000000" foes="000000" cont="0"/>
        <request index="5" response="000000" foes="000000" cont="0"/>
    </junction>
    <junction id="gneJ57" type="priority" x="184.39" y="4.75" incLanes="-gneE30_0 -gneE30_1 -gneE30_2" intLanes=":gneJ57_0_0 :gneJ57_0_1 :gneJ57_0_2" shape="184.52,9.55 184.56,-0.05 184.26,-0.05 184.22,9.55">
        <request index="0" response="000" foes="000" cont="0"/>
        <request index="1" response="000" foes="000" cont="0"/>
        <request index="2" response="000" foes="000" cont="0"/>
    </junction>
    <junction id="gneJ58" type="priority" x="-1035.08" y="-4.01" incLanes="exit_0 exit_1 exit_2" intLanes=":gneJ58_0_0 :gneJ58_0_1 :gneJ58_0_2" shape="-1035.08,-4.01 -1035.05,-13.61 -1035.08,-4.01">
        <request index="0" response="000" foes="000" cont="0"/>
        <request index="1" response="000" foes="000" cont="0"/>
        <request index="2" response="000" foes="000" cont="0"/>
    </junction>
    <junction id="gneJ62" type="priority" x="-1035.13" y="0.55" incLanes="-gneE30.15_0 -gneE30.15_1 -gneE30.15_2" intLanes=":gneJ62_0_0 :gneJ62_0_1 :gneJ62_0_2" shape="-1035.14,5.35 -1035.11,-4.25 -1035.14,5.35">
        <request index="0" response="000" foes="000" cont="0"/>
        <request index="1" response="000" foes="000" cont="0"/>
        <request index="2" response="000" foes="000" cont="0"/>
    </junction>

    <connection from="-gneE30" to="-gneE30.15" fromLane="0" toLane="0" via=":gneJ57_0_0" dir="s" state="M"/>
    <connection from="-gneE30" to="-gneE30.15" fromLane="1" toLane="1" via=":gneJ57_0_1" dir="s" state="M"/>
    <connection from="-gneE30" to="-gneE30.15" fromLane="2" toLane="2" via=":gneJ57_0_2" dir="s" state="M"/>
    <connection from="-gneE30.14" to="-gneE30.885" fromLane="0" toLane="0" via=":gneJ54_0_0" dir="s" state="M"/>
    <connection from="-gneE30.14" to="-gneE30.885" fromLane="1" toLane="1" via=":gneJ54_0_1" dir="s" state="M"/>
    <connection from="-gneE30.14" to="-gneE30.885" fromLane="2" toLane="2" via=":gneJ54_0_2" dir="s" state="M"/>
    <connection from="-gneE30.15" to="-gneE30.15.1219" fromLane="0" toLane="0" via=":gneJ62_0_0" dir="s" state="M"/>
    <connection from="-gneE30.15" to="-gneE30.15.1219" fromLane="1" toLane="1" via=":gneJ62_0_1" dir="s" state="M"/>
    <connection from="-gneE30.15" to="-gneE30.15.1219" fromLane="2" toLane="2" via=":gneJ62_0_2" dir="s" state="M"/>
    <connection from="-gneE30.15.1219" to="-gneE30.14" fromLane="0" toLane="0" via=":gneJ55_0_0" dir="s" state="M"/>
    <connection from="-gneE30.15.1219" to="-gneE30.14" fromLane="1" toLane="1" via=":gneJ55_0_1" dir="s" state="M"/>
    <connection from="-gneE30.15.1219" to="-gneE30.14" fromLane="2" toLane="2" via=":gneJ55_0_2" dir="s" state="M"/>
    <connection from="entry" to="gneE30.14" fromLane="0" toLane="0" via=":gneJ54_3_0" dir="s" state="M"/>
    <connection from="entry" to="gneE30.14" fromLane="1" toLane="1" via=":gneJ54_3_1" dir="s" state="M"/>
    <connection from="entry" to="gneE30.14" fromLane="2" toLane="2" via=":gneJ54_3_2" dir="s" state="M"/>
    <connection from="exit" to="exit.24" fromLane="0" toLane="0" via=":gneJ58_0_0" dir="s" state="M"/>
    <connection from="exit" to="exit.24" fromLane="1" toLane="1" via=":gneJ58_0_1" dir="s" state="M"/>
    <connection from="exit" to="exit.24" fromLane="2" toLane="2" via=":gneJ58_0_2" dir="s" state="M"/>
    <connection from="gneE30.14" to="exit" fromLane="0" toLane="0" via=":gneJ55_3_0" dir="s" state="M"/>
    <connection from="gneE30.14" to="exit" fromLane="1" toLane="1" via=":gneJ55_3_1" dir="s" state="M"/>
    <connection from="gneE30.14" to="exit" fromLane="2" toLane="2" via=":gneJ55_3_2" dir="s" state="M"/>

    <connection from=":gneJ54_0" to="-gneE30.885" fromLane="0" toLane="0" dir="s" state="M"/>
    <connection from=":gneJ54_0" to="-gneE30.885" fromLane="1" toLane="1" dir="s" state="M"/>
    <connection from=":gneJ54_0" to="-gneE30.885" fromLane="2" toLane="2" dir="s" state="M"/>
    <connection from=":gneJ54_3" to="gneE30.14" fromLane="0" toLane="0" dir="s" state="M"/>
    <connection from=":gneJ54_3" to="gneE30.14" fromLane="1" toLane="1" dir="s" state="M"/>
    <connection from=":gneJ54_3" to="gneE30.14" fromLane="2" toLane="2" dir="s" state="M"/>
    <connection from=":gneJ55_0" to="-gneE30.14" fromLane="0" toLane="0" dir="s" state="M"/>
    <connection from=":gneJ55_0" to="-gneE30.14" fromLane="1" toLane="1" dir="s" state="M"/>
    <connection from=":gneJ55_0" to="-gneE30.14" fromLane="2" toLane="2" dir="s" state="M"/>
    <connection from=":gneJ55_3" to="exit" fromLane="0" toLane="0" dir="s" state="M"/>
    <connection from=":gneJ55_3" to="exit" fromLane="1" toLane="1" dir="s" state="M"/>
    <connection from=":gneJ55_3" to="exit" fromLane="2" toLane="2" dir="s" state="M"/>
    <connection from=":gneJ57_0" to="-gneE30.15" fromLane="0" toLane="0" dir="s" state="M"/>
    <connection from=":gneJ57_0" to="-gneE30.15" fromLane="1" toLane="1" dir="s" state="M"/>
    <connection from=":gneJ57_0" to="-gneE30.15" fromLane="2" toLane="2" dir="s" state="M"/>
    <connection from=":gneJ58_0" to="exit.24" fromLane="0" toLane="0" dir="s" state="M"/>
    <connection from=":gneJ58_0" to="exit.24" fromLane="1" toLane="1" dir="s" state="M"/>
    <connection from=":gneJ58_0" to="exit.24" fromLane="2" toLane="2" dir="s" state="M"/>
    <connection from=":gneJ62_0" to="-gneE30.15.1219" fromLane="0" toLane="0" dir="s" state="M"/>
    <connection from=":gneJ62_0" to="-gneE30.15.1219" fromLane="1" toLane="1" dir="s" state="M"/>
    <connection from=":gneJ62_0" to="-gneE30.15.1219" fromLane="2" toLane="2" dir="s" state="M"/>

</net>
